*SPEF "IEEE 1481-1998"
*DESIGN "alu_top_module"
*DATE "Sat Jul  1 19:03:12 2023"
*VENDOR "Cadence Design Systems, Inc."
*PROGRAM "Innovus"
*VERSION "20.10-p004_1"
*DESIGN_FLOW "PIN_CAP NONE" "NAME_SCOPE LOCAL"
*DIVIDER /
*DELIMITER :
*BUS_DELIMITER []
*T_UNIT 1 NS
*C_UNIT 1 PF
*R_UNIT 1 OHM
*L_UNIT 1 HENRY

*NAME_MAP

*1 A_in[7]
*2 A_in[6]
*3 A_in[5]
*4 A_in[4]
*5 A_in[3]
*6 A_in[2]
*7 A_in[1]
*8 A_in[0]
*9 B_in[7]
*10 B_in[6]
*11 B_in[5]
*12 B_in[4]
*13 B_in[3]
*14 B_in[2]
*15 B_in[1]
*16 B_in[0]
*17 op_code_in[2]
*18 op_code_in[1]
*19 op_code_in[0]
*20 clk_in
*21 en_in
*22 result_out_out[7]
*23 result_out_out[6]
*24 result_out_out[5]
*25 result_out_out[4]
*26 result_out_out[3]
*27 result_out_out[2]
*28 result_out_out[1]
*29 result_out_out[0]
*30 flag_carry_out
*31 flag_zero_out
*32 A_out[7]
*33 A_out[6]
*34 A_out[5]
*35 A_out[4]
*36 A_out[3]
*37 A_out[2]
*38 A_out[1]
*39 A_out[0]
*40 B_out[7]
*41 B_out[6]
*42 B_out[5]
*43 B_out[4]
*44 B_out[3]
*45 B_out[2]
*46 B_out[1]
*47 B_out[0]
*48 op_code_out[2]
*49 op_code_out[1]
*50 op_code_out[0]
*51 clk_out
*52 en_out
*53 result_out_temp[7]
*54 result_out_temp[6]
*55 result_out_temp[5]
*56 result_out_temp[4]
*57 result_out_temp[3]
*58 result_out_temp[2]
*59 result_out_temp[1]
*60 result_out_temp[0]
*61 flag_carry_temp
*62 flag_zero_temp
*63 top1/n_1
*64 top1/n_2
*65 top1/n_3
*66 top1/n_4
*67 top1/n_7
*68 top1/n_9
*69 top1/n_10
*70 top1/n_11
*71 top1/n_12
*72 top1/n_13
*73 top1/n_14
*74 top1/n_15
*75 top1/n_16
*76 top1/n_17
*77 top1/n_18
*78 top1/n_19
*79 top1/n_20
*80 top1/n_21
*81 top1/n_22
*82 top1/n_23
*83 top1/n_24
*84 top1/n_25
*85 top1/n_26
*86 top1/n_27
*87 top1/n_28
*88 top1/n_29
*89 top1/n_30
*90 top1/n_31
*91 top1/n_32
*92 top1/n_34
*93 top1/n_35
*94 top1/n_36
*95 top1/n_37
*96 top1/n_38
*97 top1/n_40
*98 top1/n_41
*99 top1/n_42
*100 top1/n_43
*101 top1/n_44
*102 top1/n_45
*103 top1/n_46
*104 top1/n_47
*105 top1/n_48
*106 top1/n_49
*107 top1/n_50
*108 top1/n_51
*109 top1/n_52
*110 top1/n_53
*111 top1/n_54
*112 top1/n_55
*113 top1/n_56
*114 top1/n_57
*115 top1/n_58
*116 top1/n_59
*117 top1/n_60
*118 top1/n_61
*119 top1/n_62
*120 top1/n_63
*121 top1/n_64
*122 top1/n_65
*123 top1/n_66
*124 top1/n_67
*125 top1/n_68
*126 top1/n_69
*127 top1/n_70
*128 top1/n_71
*129 top1/n_72
*130 top1/n_73
*131 top1/n_74
*132 top1/n_75
*133 top1/n_76
*134 top1/n_77
*135 top1/n_78
*136 top1/n_79
*137 top1/n_80
*138 top1/n_81
*139 top1/n_82
*140 top1/n_83
*141 top1/n_84
*142 top1/n_85
*143 top1/n_86
*144 top1/n_87
*145 top1/n_88
*146 top1/n_89
*147 top1/n_90
*148 top1/n_91
*149 top1/n_92
*150 top1/n_93
*151 top1/n_94
*152 top1/n_95
*153 top1/n_96
*154 top1/n_97
*155 top1/n_98
*156 top1/n_99
*157 top1/n_100
*158 top1/n_101
*159 top1/n_102
*160 top1/n_103
*161 top1/n_104
*162 top1/n_105
*163 top1/n_106
*164 top1/n_107
*165 top1/n_108
*166 top1/n_109
*167 top1/n_110
*168 top1/n_111
*169 top1/n_112
*170 top1/n_113
*171 top1/n_114
*172 top1/n_115
*173 top1/n_116
*174 top1/n_117
*175 top1/n_118
*176 top1/n_119
*177 top1/n_120
*178 top1/n_121
*179 top1/n_122
*180 top1/n_123
*181 top1/n_124
*182 top1/n_125
*183 top1/n_126
*184 top1/n_127
*185 top1/n_128
*186 top1/n_129
*187 top1/n_130
*188 top1/n_131
*189 top1/n_132
*190 top1/n_133
*191 top1/n_134
*192 top1/n_135
*193 top1/n_136
*194 top1/n_137
*195 top1/n_138
*196 top1/n_139
*197 top1/n_140
*198 top1/n_141
*199 top1/n_142
*200 top1/n_143
*201 top1/n_144
*202 top1/n_145
*203 top1/n_146
*204 top1/n_147
*205 top1/n_148
*206 top1/n_149
*207 top1/n_150
*208 top1/n_151
*209 top1/n_152
*210 top1/n_153
*211 top1/n_154
*212 top1/n_155
*213 top1/n_156
*214 top1/n_157
*215 top1/n_158
*216 top1/n_159
*217 top1/n_160
*218 top1/n_161
*219 top1/n_162
*220 top1/n_163
*221 top1/n_164
*222 top1/n_165
*223 top1/n_166
*224 top1/n_167
*225 top1/n_168
*226 top1/n_169
*227 top1/n_170
*228 top1/n_171
*229 top1/n_172
*230 top1/n_173
*231 top1/n_174
*232 top1/n_175
*233 top1/n_176
*234 top1/n_177
*235 top1/n_178
*236 top1/n_179
*237 top1/n_180
*238 top1/n_181
*239 top1/n_182
*240 top1/n_183
*241 top1/n_184
*242 top1/n_185
*243 top1/n_186
*244 top1/n_187
*245 top1/n_188
*246 top1/n_189
*247 top1/n_190
*248 top1/n_191
*249 top1/n_192
*250 top1/n_193
*251 top1/n_194
*252 top1/n_195
*253 top1/n_196
*254 top1/n_197
*255 top1/n_198
*256 top1/n_199
*257 top1/n_221
*258 top1/n_222
*259 top1/n_223
*260 A0
*261 A1
*262 A2
*263 A3
*264 A4
*265 A5
*266 A6
*267 A7
*268 B0
*269 B1
*270 B2
*271 B3
*272 B4
*273 B5
*274 B6
*275 B7
*276 op_code0
*277 op_code1
*278 op_code2
*279 clk
*280 en
*281 result0
*282 result1
*283 result2
*284 result3
*285 result4
*286 result5
*287 result6
*288 result7
*289 flag_carry
*290 flag_zero
*291 top1/flag_zero_reg
*292 top1/g3088
*293 top1/g3089
*294 top1/result_reg\[7\]
*295 top1/flag_carry_reg
*296 top1/g3094
*297 top1/g3092
*298 top1/result_reg\[2\]
*299 top1/g3093
*300 top1/result_reg\[6\]
*301 top1/g3095
*302 top1/g3111
*303 top1/g3099
*304 top1/result_reg\[0\]
*305 top1/g3118
*306 top1/g3122
*307 top1/g3100
*308 top1/g3097
*309 top1/g3098
*310 top1/result_reg\[5\]
*311 top1/g3103
*312 top1/g3125
*313 top1/g3104
*314 top1/g3121
*315 top1/g3101
*316 top1/g3140
*317 top1/g3105
*318 top1/g3131
*319 top1/g3107
*320 top1/g3106
*321 top1/result_reg\[4\]
*322 top1/g3142
*323 top1/g3147
*324 top1/g3150
*325 top1/g3112
*326 top1/g3135
*327 top1/g3109
*328 top1/g3115
*329 top1/result_reg\[3\]
*330 top1/g3114
*331 top1/g3113
*332 top1/g3137
*333 top1/g3138
*334 top1/g3116
*335 top1/result_reg\[1\]
*336 top1/g3158
*337 top1/g3160
*338 top1/g3134
*339 top1/g3141
*340 top1/g3151
*341 top1/g3152
*342 top1/g3128
*343 top1/g3127
*344 top1/g3136
*345 top1/g3153
*346 top1/g3146
*347 top1/g3133
*348 top1/g3172
*349 top1/g3173
*350 top1/g3148
*351 top1/g3149
*352 top1/g3161
*353 top1/g3162
*354 top1/g3159
*355 top1/g3120
*356 top1/g3154
*357 top1/g3129
*358 top1/g3166
*359 top1/g3117
*360 top1/g3157
*361 top1/g3124
*362 top1/g3182
*363 top1/g3187
*364 top1/g3144
*365 top1/g3130
*366 top1/g3168
*367 top1/g3176
*368 top1/g3177
*369 top1/g3143
*370 top1/g3145
*371 top1/g3123
*372 top1/g3174
*373 top1/g3165
*374 top1/g3132
*375 top1/g3171
*376 top1/g3198
*377 top1/g3200
*378 top1/g3167
*379 top1/g3175
*380 top1/g3181
*381 top1/g3184
*382 top1/g3195
*383 top1/g3194
*384 top1/g3205
*385 top1/g3202
*386 top1/g3155
*387 top1/g3164
*388 top1/g3163
*389 top1/g3179
*390 top1/g3178
*391 top1/g3183
*392 top1/g3156
*393 top1/g3192
*394 top1/g3188
*395 top1/g3199
*396 top1/g3185
*397 top1/g3196
*398 top1/g3189
*399 top1/g3216
*400 top1/g3207
*401 top1/g3214
*402 top1/g3215
*403 top1/g3197
*404 top1/g3186
*405 top1/g3218
*406 top1/g3219
*407 top1/g3217
*408 top1/g3180
*409 top1/g3170
*410 top1/g3169
*411 top1/g3191
*412 top1/g3212
*413 top1/g3226
*414 top1/g3237
*415 top1/g3204
*416 top1/g3209
*417 top1/g3208
*418 top1/g3201
*419 top1/g3203
*420 top1/g3190
*421 top1/g3193
*422 top1/g3213
*423 top1/g3225
*424 top1/g3221
*425 top1/g3222
*426 top1/g3224
*427 top1/g3230
*428 top1/g3243
*429 top1/g3228
*430 top1/g3232
*431 top1/g3206
*432 top1/g3231
*433 top1/g3229
*434 top1/g3236
*435 top1/g3240
*436 top1/g3233
*437 top1/g3235
*438 top1/g3239
*439 top1/g3210
*440 top1/g3234
*441 top1/g3223
*442 top1/g3211
*443 top1/g3246
*444 top1/g3245
*445 top1/g3241
*446 top1/g3254
*447 top1/g3242
*448 top1/g3238
*449 top1/g3244
*450 top1/g3220
*451 top1/g3261
*452 top1/g3253
*453 top1/g3259
*454 top1/g3255
*455 top1/g3227
*456 top1/g3257
*457 top1/g3252
*458 top1/g3258
*459 top1/g3247
*460 top1/g3256
*461 top1/g3250
*462 top1/g3260
*463 top1/g3264
*464 top1/g3249
*465 top1/g3262
*466 top1/g3280
*467 top1/g3270
*468 top1/g3281
*469 top1/g3271
*470 top1/g3267
*471 top1/g3272
*472 top1/g3265
*473 top1/g3268
*474 top1/g3273
*475 top1/g3269
*476 top1/g3277
*477 top1/g3278
*478 top1/g3266
*479 top1/g3276
*480 top1/g3282
*481 top1/g3284
*482 top1/g3279
*483 top1/g3283
*484 top1/g3286
*485 top1/g3285
*486 top1/g3296
*487 top1/g3289
*488 top1/g3295
*489 top1/g3294
*490 top1/g3292
*491 top1/g3293
*492 top1/g3291
*493 top1/g3290
*494 top1/g3288
*495 top1/g2
*496 top1/g3307
*497 top1/g3308


*PORTS

*22 O *C 392.79 97.91
*23 O *C 392.79 58.81
*24 O *C 392.79 19.71
*25 O *C 392.79 -19.39
*26 O *C 392.79 -58.49
*27 O *C 392.79 -97.59
*28 O *C 392.79 -136.69
*29 O *C 392.79 -175.79
*30 O *C 392.79 137.01
*31 O *C 392.79 176.11
*1 I *C 136.41 431.29
*2 I *C 97.31 431.29
*3 I *C 58.21 431.29
*4 I *C 19.11 431.29
*5 I *C -19.99 431.29
*6 I *C -59.09 431.29
*7 I *C -98.19 431.29
*8 I *C -137.29 431.29
*9 I *C 136.41 -431.29
*10 I *C 97.31 -431.29
*11 I *C 58.21 -431.29
*12 I *C 19.11 -431.29
*13 I *C -19.99 -431.29
*14 I *C -59.09 -431.29
*15 I *C -98.19 -431.29
*16 I *C -137.29 -431.29
*17 I *C -392.79 -97.59
*18 I *C -392.79 -136.69
*19 I *C -392.79 -175.79
*20 I *C -392.79 -58.49
*21 I *C -392.79 -19.39


*D_NET *32 0

*CONN
*I *407:B2 I *C 52.39 -29 *L 0.00568 *D AOI22S
*I *361:B2 I *C 66.03 -25.64 *L 0.00226 *D AO12S
*I *374:I1 I *C 66.03 -9.4 *L 0.00489 *D NR2
*I *487:I I *C 77.81 -49.72 *L 0.00351 *D INV1S
*I *371:I3 I *C 70.37 -44.68 *L 0.00538 *D ND3
*I *332:C1 I *C 80.29 -54.76 *L 0.00704 *D MAO222
*I *267:O O *C 137.03 198.91 *L 0 *D XMC

*CAP

*RES
1 *32:49 *267:O 0.308
2 *32:48 *32:49 0.385
3 *32:47 *32:48 0.308
4 *32:46 *32:47 7.546
5 *32:45 *32:46 0.154
6 *32:44 *32:45 2.541
7 *32:43 *32:44 0.154
8 *32:42 *32:43 1.771
9 *32:41 *32:42 0.154
10 *32:40 *32:41 2.387
11 *32:39 *32:40 0.154
12 *32:38 *32:39 6.93
13 *32:37 *32:38 0.308
14 *32:35 *32:37 0.924
15 *32:34 *332:C1 6.5
16 *32:33 *32:35 6.5
17 *32:30 *32:34 0.372
18 *32:28 *32:33 40.3
19 *32:27 *371:I3 0.308
20 *32:26 *487:I 0.924
21 *32:25 *32:30 0.496
22 *32:24 *374:I1 0.77
23 *32:23 *32:28 0.496
24 *32:22 *32:27 1.386
25 *32:21 *32:26 6.5
26 *32:21 *32:25 0.62
27 *32:20 *32:24 6.5
28 *32:20 *32:23 5.332
29 *32:19 *32:22 6.5
30 *32:19 *32:21 1.364
31 *32:18 *32:20 3.596
32 *32:17 *32:19 0.868
33 *32:16 *32:18 6.5
34 *32:14 *32:17 0.124
35 *32:13 *32:16 0.539
36 *32:13 *361:B2 0.154
37 *32:12 *32:14 1.86
38 *32:11 *32:13 6.5
39 *32:10 *32:12 6.5
40 *32:9 *32:11 1.24
41 *32:8 *32:10 1.922
42 *32:8 *32:9 6.5
43 *32:7 *32:8 0.806
44 *32:6 *32:7 0.124
45 *32:5 *32:6 0.248
46 *32:4 *32:5 6.5
47 *32:3 *32:4 0.124
48 *32:1 *32:3 6.5
49 *32:0 *407:B2 0.308
50 *32:0 *32:1 2.541
*END

*D_NET *33 0

*CONN
*I *405:B2 I *C 44.33 -29 *L 0.00568 *D AOI22S
*I *489:I I *C 69.75 -14.44 *L 0.00351 *D INV1S
*I *425:I2 I *C 69.75 -29.56 *L 0.00398 *D ND2S
*I *266:O O *C 97.93 198.91 *L 0 *D XMC
*I *341:C1 I *C 70.37 -59.8 *L 0.00704 *D MAO222

*CAP

*RES
1 *33:23 *341:C1 0.385
2 *33:21 *33:23 6.5
3 *33:20 *266:O 0.462
4 *33:19 *33:21 4.216
5 *33:18 *33:20 8.932
6 *33:16 *33:19 0.124
7 *33:14 *33:18 6.5
8 *33:13 *425:I2 6.5
9 *33:13 *33:16 2.48
10 *33:12 *489:I 6.5
11 *33:12 *33:14 46.872
12 *33:11 *33:13 0.124
13 *33:11 *33:12 3.224
14 *33:10 *33:11 6.5
15 *33:9 *33:10 1.922
16 *33:8 *33:9 0.124
17 *33:7 *33:8 1.364
18 *33:6 *33:7 0.124
19 *33:5 *33:6 1.736
20 *33:4 *33:5 0.124
21 *33:3 *33:4 0.496
22 *33:2 *33:3 6.5
23 *33:1 *33:2 0.124
24 *405:B2 *33:1 6.5
*END

*D_NET *34 0

*CONN
*I *409:I2 I *C 44.95 -9.4 *L 0.00477 *D ND2
*I *388:B2 I *C 49.29 -8.28 *L 0.00226 *D AO12S
*I *410:I1 I *C 58.59 -9.4 *L 0.00489 *D NR2
*I *387:B2 I *C 42.47 -19.48 *L 0.00625 *D OAI12HS
*I *401:B2 I *C 30.69 -25.08 *L 0.00568 *D AOI22S
*I *265:O O *C 58.83 198.91 *L 0 *D XMC
*I *407:A2 I *C 53.01 -29 *L 0.00615 *D AOI22S
*I *353:C1 I *C 54.87 -59.8 *L 0.00704 *D MAO222
*I *491:I I *C 58.59 -74.92 *L 0.00351 *D INV1S

*CAP

*RES
1 *34:69 *491:I 0.154
2 *34:68 *34:69 6.5
3 *34:67 *34:68 0.868
4 *34:66 *34:67 6.5
5 *34:65 *34:66 1.178
6 *34:63 *34:65 6.5
7 *34:62 *353:C1 6.5
8 *34:61 *34:63 0.372
9 *34:60 *34:62 1.24
10 *34:59 *34:61 0.124
11 *34:58 *34:60 6.5
12 *34:57 *34:59 2.604
13 *34:56 *34:58 0.248
14 *34:55 *34:57 0.248
15 *34:54 *34:56 6.5
16 *34:54 *34:55 0.744
17 *34:52 *34:54 1.116
18 *34:51 *407:A2 6.5
19 *34:50 *34:52 0.248
20 *34:49 *34:51 0.124
21 *34:47 *34:50 3.348
22 *34:46 *34:49 6.5
23 *34:46 *34:48 0.137286
24 *34:45 *34:47 0.248
25 *34:44 *34:46 6.5
26 *34:44 *34:45 1.24
27 *34:41 *34:44 1.116
28 *34:40 *265:O 0.462
29 *34:39 *401:B2 6.5
30 *34:38 *34:41 6.5
31 *34:37 *34:40 0.385
32 *34:36 *34:39 0.248
33 *34:35 *34:38 0.93
34 *34:34 *34:37 0.154
35 *34:33 *34:36 6.5
36 *34:32 *34:35 0.124
37 *34:31 *34:34 7.315
38 *34:30 *34:33 2.604
39 *34:30 *34:32 1.364
40 *34:29 *34:31 0.154
41 *34:27 *34:30 6.5
42 *34:26 *34:29 0.385
43 *34:24 *387:B2 6.5
44 *34:24 *34:27 0.992
45 *34:23 *34:26 6.5
46 *34:22 *410:I1 6.5
47 *34:21 *34:24 0.372
48 *34:20 *34:23 37.448
49 *34:19 *34:22 0.124
50 *34:18 *34:21 0.124
51 *34:17 *34:20 6.5
52 *34:16 *34:19 6.5
53 *34:15 *34:18 1.488
54 *34:14 *34:17 2.046
55 *34:13 *34:16 0.372
56 *34:12 *34:15 0.124
57 *34:11 *34:14 6.5
58 *34:10 *34:13 0.124
59 *34:8 *34:12 0.372
60 *34:8 *34:11 8.308
61 *34:7 *34:10 2.046
62 *34:6 *388:B2 0.308
63 *34:5 *34:8 6.5
64 *34:4 *34:7 0.124
65 *409:I2 *34:6 1.386
66 *34:2 *34:5 0.496
67 *34:2 *34:4 0.372
68 *34:1 *409:I2 6.5
69 *34:1 *34:2 6.5
70 *34:0 *34:1 0.137286
*END

*D_NET *35 0

*CONN
*I *406:B2 I *C 18.29 -29 *L 0.00568 *D AOI22S
*I *488:I I *C 30.69 -19.48 *L 0.00351 *D INV1S
*I *367:C1 I *C 27.59 -44.68 *L 0.00704 *D MAO222
*I *405:A2 I *C 44.95 -29 *L 0.00615 *D AOI22S
*I *264:O O *C 19.73 198.91 *L 0 *D XMC

*CAP

*RES
1 *35:42 *264:O 1.426
2 *35:41 *35:42 6.5
3 *35:40 *35:41 0.385
4 *35:39 *35:40 0.154
5 *35:38 *35:39 2.541
6 *35:37 *35:38 0.154
7 *35:36 *35:37 0.385
8 *35:35 *35:36 6.5
9 *35:34 *35:35 42.408
10 *35:32 *35:34 0.496
11 *35:30 *405:A2 6.5
12 *35:29 *35:32 3.596
13 *35:28 *367:C1 6.5
14 *35:27 *35:30 0.744
15 *35:26 *35:29 0.124
16 *35:25 *35:28 1.488
17 *35:24 *35:27 6.5
18 *35:22 *35:26 0.868
19 *35:21 *35:25 6.5
20 *35:20 *35:24 0.372
21 *35:19 *488:I 0.924
22 *35:19 *35:22 6.5
23 *35:18 *35:21 0.124
24 *35:17 *35:20 0.124
25 *35:16 *35:19 0.77
26 *35:15 *35:18 6.5
27 *35:14 *35:17 2.852
28 *35:13 *35:16 6.5
29 *35:12 *35:15 1.116
30 *35:11 *35:14 0.124
31 *35:10 *35:13 0.124
32 *35:9 *35:12 6.5
33 *35:9 *35:11 0.682
34 *35:8 *35:10 0.124
35 *35:7 *35:9 0.682
36 *35:6 *35:8 1.488
37 *35:5 *35:7 6.5
38 *35:4 *35:6 0.124
39 *35:3 *35:5 0.496
40 *35:3 *35:4 0.744
41 *35:1 *35:3 6.5
42 *35:0 *406:B2 0.308
43 *35:0 *35:1 1.771
*END

*D_NET *36 0

*CONN
*I *483:I2 I *C -18.91 -39.64 *L 0.00296 *D OR2
*I *480:I1 I *C -10.85 -29.56 *L 0.00419 *D ND2
*I *486:I I *C 1.55 -29.56 *L 0.00351 *D INV1S
*I *263:O O *C -19.37 198.91 *L 0 *D XMC
*I *442:I1 I *C 24.49 -14.44 *L 0.00489 *D NR2
*I *439:I2 I *C 17.67 -14.44 *L 0.00398 *D ND2S
*I *415:B2 I *C 27.59 -25.64 *L 0.00226 *D AO12S
*I *401:A2 I *C 30.07 -25.08 *L 0.00615 *D AOI22S
*I *402:A2 I *C 34.41 -49.16 *L 0.00615 *D AOI22S

*CAP

*RES
1 *36:44 *402:A2 6.5
2 *36:43 *36:44 0.372
3 *36:42 *36:43 6.5
4 *36:41 *36:42 0.248
5 *36:40 *36:41 6.5
6 *36:39 *36:40 4.96
7 *36:38 *36:39 6.5
8 *36:36 *36:38 0.682
9 *36:34 *401:A2 6.5
10 *36:34 *36:36 6.5
11 *36:31 *415:B2 0.385
12 *36:30 *36:34 0.124
13 *36:29 *439:I2 1.771
14 *36:29 *442:I1 0.385
15 *36:28 *36:31 6.5
16 *36:28 *36:30 0.248
17 *36:27 *36:29 6.5
18 *36:26 *36:28 1.736
19 *36:25 *36:27 0.744
20 *36:24 *36:26 6.5
21 *36:23 *36:25 6.5
22 *36:23 *36:24 1.178
23 *36:22 *36:23 1.364
24 *36:21 *36:22 0.124
25 *36:19 *36:21 2.294
26 *36:18 *263:O 0.462
27 *36:17 *36:19 0.124
28 *36:16 *36:18 6.545
29 *36:15 *36:17 1.054
30 *36:14 *36:16 6.5
31 *36:13 *36:15 6.5
32 *36:13 *36:14 47.616
33 *36:12 *36:13 2.604
34 *486:I *36:12 6.5
35 *36:10 *486:I 2.156
36 *36:9 *36:10 6.5
37 *36:7 *36:9 0.124
38 *36:6 *480:I1 2.541
39 *36:5 *36:7 6.5
40 *36:4 *36:6 0.154
41 *36:3 *36:5 2.976
42 *36:2 *36:4 6.5
43 *36:2 *36:3 6.5
44 *36:1 *36:2 2.108
45 *483:I2 *36:1 6.5
*END

*D_NET *37 0

*CONN
*I *448:A2 I *C 10.85 -25.64 *L 0.00252 *D MOAI1S
*I *406:A2 I *C 18.91 -29 *L 0.00615 *D AOI22S
*I *448:B2 I *C 8.99 -24.52 *L 0.00217 *D MOAI1S
*I *493:I I *C -7.75 -24.52 *L 0.00351 *D INV1S
*I *418:C1 I *C -5.27 -49.72 *L 0.00704 *D MAO222
*I *262:O O *C -58.47 198.91 *L 0 *D XMC
*I *399:B2 I *C 17.05 -49.16 *L 0.00568 *D AOI22S

*CAP

*RES
1 *37:45 *399:B2 6.5
2 *37:45 *37:46 0.031
3 *37:44 *37:45 6.5
4 *37:43 *37:44 0.372
5 *37:41 *37:43 0.248
6 *37:40 *262:O 0.434
7 *37:38 *37:41 0.93
8 *37:37 *37:40 6.5
9 *37:36 *418:C1 6.5
10 *37:35 *37:38 0.124
11 *37:34 *37:37 12.32
12 *37:33 *37:36 0.124
13 *37:32 *37:35 1.364
14 *37:31 *37:34 0.154
15 *37:30 *37:33 6.5
16 *37:29 *37:32 0.372
17 *37:28 *37:31 3.157
18 *37:27 *37:30 1.736
19 *37:27 *37:29 0.372
20 *37:26 *37:28 0.154
21 *37:25 *37:27 6.5
22 *37:24 *37:26 0.385
23 *37:23 *37:25 0.372
24 *37:22 *37:24 6.5
25 *37:21 *37:23 0.124
26 *37:19 *37:22 0.124
27 *37:18 *37:21 2.356
28 *37:17 *493:I 6.5
29 *37:17 *37:19 48.98
30 *37:15 *37:18 0.124
31 *37:14 *37:17 0.124
32 *37:12 *448:B2 6.5
33 *37:11 *37:15 2.604
34 *37:10 *37:14 6.5
35 *37:9 *406:A2 6.5
36 *37:8 *37:12 0.124
37 *37:7 *37:11 6.5
38 *37:7 *37:10 2.294
39 *37:6 *37:9 0.868
40 *37:5 *37:8 6.5
41 *37:5 *37:7 1.364
42 *37:4 *37:6 6.5
43 *37:2 *37:5 0.372
44 *37:2 *37:4 1.736
45 *37:1 *448:A2 6.5
46 *37:1 *37:2 6.5
47 *37:0 *37:1 0.137286
*END

*D_NET *38 0

*CONN
*I *261:O O *C -97.57 198.91 *L 0 *D XMC
*I *485:I1 I *C 9.61 -19.48 *L 0.00419 *D ND2
*I *481:I2 I *C 10.85 -15 *L 0.00408 *D NR2
*I *450:C1 I *C -8.99 -54.76 *L 0.00704 *D MAO222
*I *424:I2 I *C 18.91 -44.68 *L 0.00398 *D ND2S
*I *490:I I *C -23.87 -54.76 *L 0.00351 *D INV1S
*I *384:B2 I *C 25.11 -64.84 *L 0.00217 *D MOAI1S

*CAP

*RES
1 *38:57 *384:B2 6.5
2 *38:55 *38:57 0.744
3 *38:54 *490:I 6.5
4 *38:53 *38:55 0.124
5 *38:52 *38:54 0.62
6 *38:51 *38:53 2.356
7 *38:50 *38:52 6.5
8 *38:48 *38:51 0.248
9 *38:47 *38:50 0.372
10 *38:46 *424:I2 6.5
11 *38:45 *38:48 1.116
12 *38:43 *38:47 0.124
13 *38:42 *38:46 0.248
14 *38:41 *38:45 6.5
15 *38:40 *450:C1 6.5
16 *38:39 *38:43 1.488
17 *38:38 *38:42 6.5
18 *38:38 *38:41 0.93
19 *38:37 *38:40 0.496
20 *38:36 *38:39 0.124
21 *38:34 *38:38 0.682
22 *38:33 *38:37 6.5
23 *38:33 *38:36 1.364
24 *38:32 *481:I2 6.5
25 *38:31 *38:34 0.124
26 *38:30 *38:33 0.682
27 *38:28 *38:32 0.372
28 *38:27 *38:31 4.774
29 *38:26 *38:30 6.5
30 *38:25 *485:I1 0.154
31 *38:24 *38:28 0.372
32 *38:23 *38:27 6.5
33 *38:23 *38:26 1.24
34 *38:22 *38:25 6.5
35 *38:22 *38:24 1.364
36 *38:21 *38:23 5.58
37 *38:20 *38:22 0.372
38 *38:19 *38:21 6.5
39 *38:18 *38:20 6.5
40 *38:17 *38:19 1.054
41 *38:17 *38:18 2.17
42 *38:16 *38:17 6.5
43 *38:15 *38:16 48.112
44 *38:14 *38:15 6.5
45 *38:13 *38:14 0.385
46 *38:12 *38:13 0.154
47 *38:11 *38:12 1.771
48 *38:10 *38:11 0.308
49 *38:9 *38:10 3.927
50 *38:8 *38:9 0.154
51 *38:7 *38:8 12.32
52 *38:6 *38:7 0.154
53 *38:5 *38:6 1.771
54 *38:4 *38:5 0.308
55 *38:3 *38:4 10.087
56 *38:2 *38:3 0.308
57 *38:0 *38:2 0.385
58 *38:0 *261:O 0.308
*END

*D_NET *39 0

*CONN
*I *384:A2 I *C 23.25 -65.96 *L 0.00252 *D MOAI1S
*I *399:A2 I *C 16.43 -49.16 *L 0.00615 *D AOI22S
*I *479:I2 I *C -5.89 -65.4 *L 0.00408 *D NR2
*I *484:I1 I *C -10.85 -65.4 *L 0.00199 *D AN2
*I *485:I2 I *C 10.85 -19.48 *L 0.00477 *D ND2
*I *497:I1 I *C -17.05 -65.4 *L 0.00223 *D OR2B1S
*I *481:I1 I *C 9.61 -14.44 *L 0.00489 *D NR2
*I *260:O O *C -136.67 198.91 *L 0 *D XMC

*CAP

*RES
1 *39:60 *260:O 1.178
2 *39:59 *39:60 0.124
3 *39:58 *39:59 6.5
4 *39:57 *39:58 35.343
5 *39:56 *39:57 0.154
6 *39:55 *39:56 6.5
7 *39:54 *39:55 45.756
8 *39:53 *39:54 6.5
9 *39:52 *39:53 0.154
10 *481:I1 *39:52 11.088
11 *39:50 *481:I1 6.5
12 *39:49 *39:50 0.372
13 *39:48 *39:49 0.124
14 *39:46 *39:48 0.496
15 *39:45 *497:I1 6.5
16 *39:43 *39:46 0.124
17 *39:42 *39:45 0.248
18 *39:41 *485:I2 6.5
19 *39:41 *39:43 0.248
20 *39:39 *39:42 6.5
21 *39:38 *39:41 0.372
22 *39:36 *484:I1 6.5
23 *39:35 *39:39 0.124
24 *39:34 *39:38 6.5
25 *39:33 *479:I2 6.5
26 *39:32 *39:36 0.372
27 *39:31 *39:35 0.124
28 *39:30 *39:34 0.248
29 *39:29 *39:33 0.372
30 *39:28 *39:32 6.5
31 *39:28 *39:31 1.178
32 *39:27 *39:30 6.5
33 *39:26 *39:29 6.5
34 *39:26 *39:28 1.054
35 *39:25 *39:27 2.852
36 *39:24 *39:26 0.372
37 *39:23 *39:25 0.124
38 *39:22 *39:24 0.124
39 *39:21 *39:23 3.348
40 *39:19 *39:22 1.364
41 *39:18 *39:21 0.124
42 *39:17 *399:A2 6.5
43 *39:16 *39:19 0.124
44 *39:15 *39:18 0.372
45 *39:14 *39:17 0.372
46 *39:13 *39:16 0.248
47 *39:12 *39:15 6.5
48 *39:11 *39:14 6.5
49 *39:10 *39:13 0.124
50 *39:9 *39:12 0.806
51 *39:9 *39:11 0.124
52 *39:8 *39:10 1.612
53 *39:7 *39:9 6.5
54 *39:6 *39:8 0.124
55 *39:5 *39:7 3.348
56 *39:4 *39:6 1.054
57 *39:4 *39:5 6.5
58 *39:2 *39:4 1.612
59 *39:1 *384:A2 6.5
60 *39:1 *39:2 6.5
61 *39:0 *39:1 0.137286
*END

*D_NET *40 0

*CONN
*I *469:I2 I *C 78.43 -69.88 *L 0.00477 *D ND2
*I *467:I1 I *C 79.05 -59.8 *L 0.00489 *D NR2
*I *275:O O *C 135.79 -198.91 *L 0 *D XMC
*I *332:B1 I *C 77.81 -55.32 *L 0.00587 *D MAO222

*CAP

*RES
1 *40:22 *332:B1 6.5
2 *40:21 *40:22 0.496
3 *40:19 *40:21 0.124
4 *40:18 *275:O 0.308
5 *40:16 *40:19 0.496
6 *40:15 *40:18 0.385
7 *40:14 *467:I1 6.5
8 *40:14 *40:16 0.124
9 *40:13 *40:15 0.308
10 *40:11 *40:14 1.488
11 *40:10 *40:13 16.093
12 *40:9 *469:I2 0.308
13 *40:8 *40:11 0.124
14 *40:7 *40:10 0.308
15 *40:6 *40:9 6.5
16 *40:6 *40:8 0.992
17 *40:5 *40:7 1.771
18 *40:4 *40:6 0.372
19 *40:3 *40:5 6.5
20 *40:2 *40:4 0.124
21 *40:1 *40:3 0.868
22 *40:0 *40:2 26.784
23 *40:0 *40:1 0.124
*END

*D_NET *41 0

*CONN
*I *471:I2 I *C 66.65 -79.96 *L 0.00477 *D ND2
*I *466:I1 I *C 73.47 -74.92 *L 0.00489 *D NR2
*I *341:B1 I *C 72.85 -59.24 *L 0.00587 *D MAO222
*I *274:O O *C 96.69 -198.91 *L 0 *D XMC

*CAP

*RES
1 *41:17 *274:O 0.372
2 *41:16 *41:17 1.612
3 *41:14 *41:16 0.248
4 *41:13 *341:B1 6.5
5 *41:12 *41:14 2.046
6 *41:11 *41:13 0.868
7 *41:10 *41:12 0.248
8 *41:9 *41:11 0.124
9 *41:7 *41:10 1.364
10 *41:6 *41:9 2.728
11 *41:5 *466:I1 6.5
12 *41:4 *41:7 6.5
13 *41:3 *41:6 0.248
14 *41:3 *41:5 0.124
15 *41:2 *41:4 25.916
16 *41:2 *41:3 0.992
17 *41:1 *41:2 6.5
18 *471:I2 *41:1 2.156
*END

*D_NET *42 0

*CONN
*I *353:B1 I *C 52.39 -59.24 *L 0.00587 *D MAO222
*I *473:I1 I *C 51.77 -74.92 *L 0.00489 *D NR2
*I *472:I2 I *C 53.01 -79.96 *L 0.00477 *D ND2
*I *273:O O *C 57.59 -198.91 *L 0 *D XMC

*CAP

*RES
1 *42:23 *273:O 0.372
2 *42:22 *42:23 1.054
3 *42:21 *42:22 6.5
4 *42:20 *42:21 3.968
5 *42:19 *42:20 0.124
6 *42:18 *42:19 21.452
7 *42:17 *42:18 0.124
8 *42:16 *42:17 0.248
9 *42:14 *42:16 0.124
10 *42:13 *472:I2 6.5
11 *42:13 *42:14 0.248
12 *42:12 *42:13 0.744
13 *42:10 *42:12 0.248
14 *42:9 *473:I1 6.5
15 *42:9 *42:10 0.372
16 *42:8 *42:9 6.5
17 *42:6 *42:8 0.124
18 *42:5 *353:B1 6.5
19 *42:4 *42:6 6.5
20 *42:3 *42:5 0.124
21 *42:2 *42:4 3.596
22 *42:1 *42:3 6.5
23 *42:1 *42:2 6.5
24 *42:0 *42:1 0.137286
*END

*D_NET *43 0

*CONN
*I *272:O O *C 18.49 -198.91 *L 0 *D XMC
*I *367:B1 I *C 30.07 -45.24 *L 0.00587 *D MAO222
*I *468:I2 I *C 31.93 -39.64 *L 0.00477 *D ND2
*I *470:I1 I *C 34.41 -44.68 *L 0.00489 *D NR2

*CAP

*RES
1 *43:18 *470:I1 0.539
2 *43:16 *43:18 6.5
3 *43:15 *468:I2 0.539
4 *43:14 *43:16 0.248
5 *43:13 *43:15 6.5
6 *43:11 *43:14 0.496
7 *43:11 *43:13 0.868
8 *43:10 *367:B1 6.5
9 *43:10 *43:11 0.372
10 *43:9 *43:10 1.612
11 *43:8 *43:9 6.5
12 *43:7 *43:8 0.124
13 *43:6 *43:7 6.5
14 *43:5 *43:6 31.992
15 *43:4 *43:5 6.5
16 *43:3 *43:4 0.372
17 *43:2 *43:3 0.124
18 *43:1 *43:2 2.17
19 *272:O *43:1 0.496
*END

*D_NET *44 0

*CONN
*I *271:O O *C -20.61 -198.91 *L 0 *D XMC
*I *483:I1 I *C -18.29 -39.64 *L 0.00359 *D OR2
*I *480:I2 I *C -9.61 -29.56 *L 0.00477 *D ND2
*I *385:B1 I *C -0.31 -35.16 *L 0.00587 *D MAO222

*CAP

*RES
1 *44:21 *385:B1 6.5
2 *44:20 *44:21 0.124
3 *44:19 *44:20 6.5
4 *44:16 *44:19 2.294
5 *44:15 *480:I2 6.5
6 *44:14 *483:I1 6.5
7 *44:13 *44:16 6.5
8 *44:13 *44:15 1.116
9 *44:12 *44:14 0.496
10 *44:11 *44:13 0.62
11 *44:10 *44:12 6.5
12 *44:9 *44:11 6.5
13 *44:7 *44:10 0.124
14 *44:7 *44:9 1.736
15 *44:6 *271:O 1.116
16 *44:5 *44:7 6.5
17 *44:4 *44:6 0.496
18 *44:3 *44:5 6.572
19 *44:2 *44:4 28.024
20 *44:1 *44:3 6.5
21 *44:1 *44:2 6.5
22 *44:0 *44:1 0.137286
*END

*D_NET *45 0

*CONN
*I *418:B1 I *C -7.75 -49.16 *L 0.00587 *D MAO222
*I *477:I1 I *C -24.49 -44.68 *L 0.00489 *D NR2
*I *270:O O *C -59.71 -198.91 *L 0 *D XMC
*I *476:I2 I *C -18.29 -44.68 *L 0.00477 *D ND2

*CAP

*RES
1 *45:30 *476:I2 0.308
2 *45:29 *45:30 1.155
3 *45:28 *45:29 0.154
4 *45:26 *45:28 0.385
5 *45:25 *270:O 0.496
6 *45:24 *45:26 6.5
7 *45:23 *45:25 6.5
8 *45:22 *45:24 0.124
9 *45:21 *45:23 7.812
10 *45:19 *45:22 0.248
11 *45:17 *45:21 0.124
12 *45:16 *477:I1 6.5
13 *45:16 *45:19 0.496
14 *45:15 *418:B1 6.5
15 *45:14 *45:17 6.5
16 *45:13 *45:16 0.124
17 *45:12 *45:15 0.868
18 *45:11 *45:14 0.496
19 *45:10 *45:13 6.5
20 *45:9 *45:12 6.5
21 *45:8 *45:11 0.124
22 *45:7 *45:10 0.124
23 *45:7 *45:9 3.844
24 *45:6 *45:8 28.644
25 *45:5 *45:7 6.5
26 *45:4 *45:6 0.124
27 *45:3 *45:5 3.472
28 *45:2 *45:4 0.744
29 *45:1 *45:3 6.5
30 *45:1 *45:2 6.5
31 *45:0 *45:1 0.137286
*END

*D_NET *46 0

*CONN
*I *269:O O *C -98.81 -198.91 *L 0 *D XMC
*I *474:I1 I *C -25.73 -54.76 *L 0.00489 *D NR2
*I *478:I2 I *C -18.91 -59.8 *L 0.00477 *D ND2
*I *450:B1 I *C -6.51 -55.32 *L 0.00587 *D MAO222

*CAP

*RES
1 *46:22 *450:B1 6.5
2 *46:21 *46:22 0.124
3 *46:20 *46:21 6.5
4 *46:19 *46:20 0.372
5 *46:18 *46:19 0.248
6 *46:17 *46:18 1.054
7 *46:16 *46:17 0.124
8 *46:15 *46:16 2.418
9 *46:12 *46:15 6.5
10 *46:11 *478:I2 2.156
11 *46:10 *474:I1 6.5
12 *46:10 *46:12 0.124
13 *46:9 *46:11 6.5
14 *46:9 *46:10 1.116
15 *46:8 *46:9 0.62
16 *46:7 *46:8 0.124
17 *46:6 *46:7 29.14
18 *46:5 *46:6 6.5
19 *46:4 *46:5 0.124
20 *46:3 *46:4 15.748
21 *46:2 *46:3 6.5
22 *46:1 *46:2 0.124
23 *269:O *46:1 0.868
*END

*D_NET *47 0

*CONN
*I *497:B1 I *C -15.81 -65.4 *L 0.00308 *D OR2B1S
*I *484:I2 I *C -10.23 -64.84 *L 0.00222 *D AN2
*I *479:I1 I *C -7.13 -64.84 *L 0.00489 *D NR2
*I *268:O O *C -137.91 -198.91 *L 0 *D XMC

*CAP

*RES
1 *47:22 *268:O 4.464
2 *47:21 *47:22 0.682
3 *47:20 *47:21 24.304
4 *47:18 *47:20 0.124
5 *47:17 *479:I1 0.385
6 *47:16 *47:18 0.372
7 *47:15 *47:17 6.5
8 *47:14 *47:16 6.5
9 *47:12 *47:15 0.124
10 *47:11 *47:14 0.124
11 *47:10 *484:I2 6.5
12 *47:9 *47:12 0.124
13 *47:8 *47:11 24.676
14 *47:7 *47:10 0.124
15 *47:6 *47:9 6.5
16 *47:5 *47:8 0.248
17 *47:4 *47:7 6.5
18 *47:4 *47:6 0.248
19 *47:2 *47:5 2.976
20 *47:2 *47:4 1.178
21 *47:1 *497:B1 6.5
22 *47:1 *47:2 6.5
23 *47:0 *47:1 0.137286
*END

*D_NET *48 0

*CONN
*I *278:O O *C -160.41 -96.97 *L 0 *D XMC
*I *482:I1 I *C -7.13 -69.88 *L 0.00419 *D ND2
*I *475:I1 I *C -4.65 -74.92 *L 0.00489 *D NR2

*CAP

*RES
1 *48:12 *475:I1 0.77
2 *48:11 *482:I1 6.5
3 *48:10 *48:12 6.5
4 *48:10 *48:11 1.116
5 *48:9 *48:10 3.1
6 *48:8 *48:9 6.5
7 *48:7 *48:8 0.385
8 *48:6 *48:7 0.154
9 *48:5 *48:6 47.124
10 *48:4 *48:5 0.154
11 *48:3 *48:4 1.155
12 *48:2 *48:3 6.5
13 *48:1 *48:2 1.612
14 *278:O *48:1 0.248
*END

*D_NET *49 0

*CONN
*I *277:O O *C -160.41 -136.07 *L 0 *D XMC
*I *492:I I *C 15.19 -74.92 *L 0.00351 *D INV1S
*I *437:I1 I *C 8.99 -74.92 *L 0.00489 *D NR2
*I *447:I2 I *C 23.87 -74.92 *L 0.00222 *D AN2
*I *435:I1 I *C 25.73 -69.88 *L 0.00489 *D NR2
*I *428:I2 I *C 28.83 -69.88 *L 0.00398 *D ND2S

*CAP

*RES
1 *435:I1 *428:I2 0.924
2 *49:24 *435:I1 6.5
3 *49:22 *49:24 0.62
4 *49:19 *447:I2 6.5
5 *49:18 *49:22 0.372
6 *49:17 *437:I1 0.154
7 *49:16 *492:I 6.5
8 *49:15 *49:19 0.124
9 *49:15 *49:18 0.372
10 *49:14 *49:17 6.5
11 *49:13 *49:16 0.124
12 *49:12 *49:15 6.5
13 *49:11 *49:14 0.124
14 *49:10 *49:13 6.5
15 *49:10 *49:12 1.922
16 *49:9 *49:11 6.5
17 *49:9 *49:10 1.488
18 *49:8 *49:9 37.014
19 *49:7 *49:8 6.5
20 *49:6 *49:7 0.372
21 *49:5 *49:6 0.248
22 *49:4 *49:5 12.772
23 *49:3 *49:4 0.248
24 *49:2 *49:3 0.372
25 *49:1 *49:2 6.5
26 *277:O *49:1 0.248
*END

*D_NET *50 0

*CONN
*I *276:O O *C -160.41 -175.17 *L 0 *D XMC
*I *496:B1 I *C 5.89 -69.32 *L 0.00308 *D OR2B1S
*I *454:I2 I *C 5.89 -74.92 *L 0.00398 *D ND2S
*I *460:I1 I *C 0.93 -69.88 *L 0.00489 *D NR2
*I *495:B1 I *C 0.93 -74.92 *L 0.0046 *D AN2B1S

*CAP

*RES
1 *50:13 *495:B1 6.5
2 *50:12 *460:I1 6.5
3 *50:11 *454:I2 6.5
4 *50:10 *496:B1 6.5
5 *50:9 *50:13 0.744
6 *50:9 *50:12 0.372
7 *50:8 *50:11 0.124
8 *50:8 *50:10 1.116
9 *50:7 *50:9 0.496
10 *50:6 *50:8 0.496
11 *50:6 *50:7 0.62
12 *50:5 *50:6 23.312
13 *50:4 *50:5 6.5
14 *50:3 *50:4 52.052
15 *50:2 *50:3 6.5
16 *50:1 *50:2 0.868
17 *276:O *50:1 0.248
*END

*D_NET *51 0

*CONN
*I *279:O O *C -160.41 -57.87 *L 0 *D XMC
*I *295:CK I *C 85.25 -54.76 *L 0.00219 *D QDFFN
*I *335:CK I *C 93.93 -59.8 *L 0.00219 *D QDFFN
*I *304:CK I *C 84.63 -69.88 *L 0.00219 *D QDFFN
*I *298:CK I *C 84.63 -44.68 *L 0.00219 *D QDFFN
*I *329:CK I *C 95.17 -44.68 *L 0.00219 *D QDFFN
*I *294:CK I *C 93.31 -29.56 *L 0.00219 *D QDFFN
*I *300:CK I *C 94.55 -24.52 *L 0.00219 *D QDFFN
*I *291:CK I *C 98.27 -19.48 *L 0.00219 *D QDFFS
*I *321:CK I *C 79.05 -19.48 *L 0.00219 *D QDFFN
*I *310:CK I *C 75.95 -14.44 *L 0.00219 *D QDFFN

*CAP

*RES
1 *51:59 *310:CK 6.5
2 *51:58 *51:59 0.248
3 *51:56 *51:58 0.682
4 *51:55 *321:CK 6.5
5 *51:55 *51:56 0.868
6 *51:54 *51:55 0.124
7 *51:53 *51:54 6.5
8 *51:52 *51:53 1.488
9 *51:50 *51:52 0.124
10 *51:49 *291:CK 6.5
11 *51:48 *51:50 1.178
12 *51:47 *51:49 0.124
13 *51:45 *51:48 0.124
14 *51:44 *51:47 6.5
15 *51:43 *300:CK 6.5
16 *51:42 *51:45 0.372
17 *51:42 *51:44 1.054
18 *51:41 *51:43 0.124
19 *51:40 *51:42 6.5
20 *51:38 *51:41 0.248
21 *51:38 *51:40 0.868
22 *51:37 *294:CK 6.5
23 *51:37 *51:38 1.24
24 *51:34 *51:37 0.868
25 *51:33 *329:CK 6.5
26 *51:32 *298:CK 6.5
27 *51:31 *51:34 0.124
28 *51:30 *51:33 0.372
29 *51:29 *51:32 0.31
30 *51:28 *51:31 2.852
31 *51:27 *51:30 6.5
32 *51:26 *51:29 6.5
33 *51:25 *51:28 6.5
34 *51:25 *51:27 0.248
35 *51:24 *51:26 0.248
36 *51:24 *51:25 1.736
37 *51:22 *51:24 6.5
38 *51:21 *304:CK 6.5
39 *51:20 *51:22 1.736
40 *51:18 *51:21 0.744
41 *51:16 *51:20 0.124
42 *51:15 *335:CK 6.5
43 *51:14 *51:18 0.124
44 *51:13 *295:CK 6.5
45 *51:13 *51:16 0.124
46 *51:12 *51:15 0.124
47 *51:11 *51:14 1.364
48 *51:11 *51:13 1.24
49 *51:10 *51:12 6.5
50 *51:9 *51:11 6.5
51 *51:9 *51:10 1.922
52 *51:8 *51:9 2.604
53 *51:7 *51:8 6.5
54 *51:6 *51:7 0.62
55 *51:5 *51:6 6.5
56 *51:4 *51:5 19.716
57 *51:3 *51:4 6.5
58 *51:2 *51:3 1.116